Version 4
SHEET 1 4264 1284
WIRE 160 -112 0 -112
WIRE 272 -112 240 -112
WIRE 336 -112 272 -112
WIRE 448 -112 400 -112
WIRE 624 -112 448 -112
WIRE 736 -112 704 -112
WIRE 800 -112 736 -112
WIRE 928 -112 864 -112
WIRE 1088 -112 928 -112
WIRE 1200 -112 1168 -112
WIRE 1248 -112 1200 -112
WIRE 1376 -112 1312 -112
WIRE 1440 -112 1376 -112
WIRE 1744 -112 1696 -112
WIRE 2016 -112 1968 -112
WIRE 1744 -80 1744 -112
WIRE 0 0 0 -112
WIRE 272 0 272 -112
WIRE 736 0 736 -112
WIRE 1200 0 1200 -112
WIRE 2016 0 2016 -112
WIRE 448 16 448 -112
WIRE 928 16 928 -112
WIRE 1376 32 1376 -112
WIRE 1744 32 1744 0
WIRE 1808 32 1744 32
WIRE 1744 64 1744 32
WIRE 224 80 144 80
WIRE 688 80 592 80
WIRE 1152 80 1056 80
WIRE 0 208 0 80
WIRE 272 208 272 96
WIRE 272 208 0 208
WIRE 448 208 448 80
WIRE 448 208 272 208
WIRE 736 208 736 96
WIRE 736 208 448 208
WIRE 928 208 928 80
WIRE 928 208 736 208
WIRE 1200 208 1200 96
WIRE 1200 208 928 208
WIRE 1376 208 1376 96
WIRE 1376 208 1200 208
WIRE 1744 208 1744 144
WIRE 2016 208 2016 80
WIRE 0 256 0 208
WIRE 144 272 144 80
WIRE 592 272 592 80
WIRE 592 272 144 272
WIRE 1056 272 1056 80
WIRE 1056 272 592 272
WIRE 240 400 240 352
WIRE 1328 400 1264 400
WIRE 1728 400 1696 400
WIRE 496 416 272 416
WIRE 1040 416 992 416
WIRE 144 432 144 272
WIRE 208 432 144 432
WIRE 1328 432 1264 432
WIRE 352 448 272 448
WIRE 496 448 496 416
WIRE 1728 448 1728 400
WIRE -224 480 -224 416
WIRE 240 528 240 464
WIRE 1728 576 1728 528
WIRE 496 592 496 528
WIRE -224 624 -224 560
FLAG 240 528 0
FLAG 0 256 0
FLAG 1440 -112 Vout
IOPIN 1440 -112 Out
FLAG 1744 208 0
FLAG 1696 -112 Vout
IOPIN 1696 -112 In
FLAG 1808 32 Vsense
FLAG 2016 208 0
FLAG 1968 -112 Vout
IOPIN 1968 -112 In
FLAG 1728 576 0
FLAG 352 448 Vctrl
FLAG 240 352 Vcc
FLAG 496 592 0
FLAG -224 624 0
FLAG -224 416 Vcc
FLAG 1696 400 Vref
IOPIN 1696 400 Out
FLAG 992 416 Vctrl
FLAG 1328 400 Vsense
FLAG 1328 432 Vref
SYMBOL voltage 0 -16 R0
WINDOW 123 0 0 Left 0
WINDOW 39 0 0 Left 0
SYMATTR InstName V1
SYMATTR Value 12
SYMBOL ind 256 -128 R90
WINDOW 0 5 56 VBottom 2
WINDOW 3 32 56 VTop 2
SYMATTR InstName L1
SYMATTR Value 220µ
SYMBOL ind 720 -128 R90
WINDOW 0 5 56 VBottom 2
WINDOW 3 32 56 VTop 2
SYMATTR InstName L2
SYMATTR Value 220µ
SYMBOL ind 1184 -128 R90
WINDOW 0 5 56 VBottom 2
WINDOW 3 32 56 VTop 2
SYMATTR InstName L3
SYMATTR Value 220µ
SYMBOL nmos 224 0 R0
SYMATTR InstName M1
SYMATTR Value BSZ0905NS
SYMBOL nmos 688 0 R0
SYMATTR InstName M2
SYMATTR Value BSZ0905NS
SYMBOL nmos 1152 0 R0
SYMATTR InstName M3
SYMATTR Value BSZ0905NS
SYMBOL cap 432 16 R0
SYMATTR InstName C1
SYMATTR Value 470µ
SYMBOL cap 912 16 R0
SYMATTR InstName C2
SYMATTR Value 220µ
SYMBOL cap 1360 32 R0
SYMATTR InstName C3
SYMATTR Value 100µ
SYMBOL schottky 336 -96 R270
WINDOW 0 32 32 VTop 2
WINDOW 3 0 32 VBottom 2
SYMATTR InstName D1
SYMATTR Value MBR735
SYMATTR Description Diode
SYMATTR Type diode
SYMBOL schottky 800 -96 R270
WINDOW 0 32 32 VTop 2
WINDOW 3 0 32 VBottom 2
SYMATTR InstName D2
SYMATTR Value MBR735
SYMATTR Description Diode
SYMATTR Type diode
SYMBOL schottky 1248 -96 R270
WINDOW 0 32 32 VTop 2
WINDOW 3 0 32 VBottom 2
SYMATTR InstName D3
SYMATTR Value MBR735
SYMATTR Description Diode
SYMATTR Type diode
SYMBOL voltage 496 432 R0
WINDOW 123 0 0 Left 0
WINDOW 39 0 0 Left 0
SYMATTR InstName V2
SYMATTR Value PULSE(18 0 0 100u 1n 1n 100u)
SYMBOL res 2000 -16 R0
SYMATTR InstName RLoad
SYMATTR Value 10k
SYMBOL voltage 1728 432 R0
SYMATTR InstName V3
SYMATTR Value 2.8
SYMBOL res 1728 -96 R0
SYMATTR InstName R2
SYMATTR Value 330k
SYMBOL res 1728 48 R0
SYMATTR InstName R3
SYMATTR Value 4.7k
SYMBOL voltage -224 464 R0
SYMATTR InstName V4
SYMATTR Value 18
SYMBOL Comparators\\LT1017 240 432 M0
SYMATTR InstName U9
SYMBOL PID_controller 1152 416 M0
SYMATTR InstName X1
TEXT -48 624 Left 2 !.tran 0 100m 0 1u uic
